rawData/IEEE_123/dss_scripts/PVSystem.dss
! PV systems for IEEE_123 feeder.
! 52 single-phase PVsystems on the top 50% highest-load buses.
! Each pmpp = 45% of the node load.
! Feeder peak load: 3570.00 kW   Total installed PV: 1093.50 kW
! Generated by add_pv_battery_123.py

New PVSystem.PV_3_a       phases=1 bus1=3.1 kv=2.4 irradiance=1 kva=18.0000 Pmpp=18.0000 Vmaxpu=1.05 Vminpu=0.95 %cutin=0.1 %cutout=0.1
New PVSystem.PV_6_c       phases=1 bus1=6.3 kv=2.4 irradiance=1 kva=18.0000 Pmpp=18.0000 Vmaxpu=1.05 Vminpu=0.95 %cutin=0.1 %cutout=0.1
New PVSystem.PV_8_c       phases=1 bus1=8.3 kv=2.4 irradiance=1 kva=18.0000 Pmpp=18.0000 Vmaxpu=1.05 Vminpu=0.95 %cutin=0.1 %cutout=0.1
New PVSystem.PV_11_a      phases=1 bus1=11.1 kv=2.4 irradiance=1 kva=18.0000 Pmpp=18.0000 Vmaxpu=1.05 Vminpu=0.95 %cutin=0.1 %cutout=0.1
New PVSystem.PV_13_a      phases=1 bus1=13.1 kv=2.4 irradiance=1 kva=18.0000 Pmpp=18.0000 Vmaxpu=1.05 Vminpu=0.95 %cutin=0.1 %cutout=0.1
New PVSystem.PV_18_c      phases=1 bus1=18.3 kv=2.4 irradiance=1 kva=18.0000 Pmpp=18.0000 Vmaxpu=1.05 Vminpu=0.95 %cutin=0.1 %cutout=0.1
New PVSystem.PV_21_a      phases=1 bus1=21.1 kv=2.4 irradiance=1 kva=18.0000 Pmpp=18.0000 Vmaxpu=1.05 Vminpu=0.95 %cutin=0.1 %cutout=0.1
New PVSystem.PV_22_a      phases=1 bus1=22.1 kv=2.4 irradiance=1 kva=18.0000 Pmpp=18.0000 Vmaxpu=1.05 Vminpu=0.95 %cutin=0.1 %cutout=0.1
New PVSystem.PV_24_b      phases=1 bus1=24.2 kv=2.4 irradiance=1 kva=18.0000 Pmpp=18.0000 Vmaxpu=1.05 Vminpu=0.95 %cutin=0.1 %cutout=0.1
New PVSystem.PV_26_c      phases=1 bus1=26.3 kv=2.4 irradiance=1 kva=18.0000 Pmpp=18.0000 Vmaxpu=1.05 Vminpu=0.95 %cutin=0.1 %cutout=0.1
New PVSystem.PV_30_a      phases=1 bus1=30.1 kv=2.4 irradiance=1 kva=18.0000 Pmpp=18.0000 Vmaxpu=1.05 Vminpu=0.95 %cutin=0.1 %cutout=0.1
New PVSystem.PV_31_a      phases=1 bus1=31.1 kv=2.4 irradiance=1 kva=18.0000 Pmpp=18.0000 Vmaxpu=1.05 Vminpu=0.95 %cutin=0.1 %cutout=0.1
New PVSystem.PV_32_c      phases=1 bus1=32.3 kv=2.4 irradiance=1 kva=18.0000 Pmpp=18.0000 Vmaxpu=1.05 Vminpu=0.95 %cutin=0.1 %cutout=0.1
New PVSystem.PV_35_a      phases=1 bus1=35.1 kv=2.4 irradiance=1 kva=18.0000 Pmpp=18.0000 Vmaxpu=1.05 Vminpu=0.95 %cutin=0.1 %cutout=0.1
New PVSystem.PV_36_c      phases=1 bus1=36.3 kv=2.4 irradiance=1 kva=18.0000 Pmpp=18.0000 Vmaxpu=1.05 Vminpu=0.95 %cutin=0.1 %cutout=0.1
New PVSystem.PV_37_a      phases=1 bus1=37.1 kv=2.4 irradiance=1 kva=18.0000 Pmpp=18.0000 Vmaxpu=1.05 Vminpu=0.95 %cutin=0.1 %cutout=0.1
New PVSystem.PV_39_a      phases=1 bus1=39.1 kv=2.4 irradiance=1 kva=18.0000 Pmpp=18.0000 Vmaxpu=1.05 Vminpu=0.95 %cutin=0.1 %cutout=0.1
New PVSystem.PV_40_b      phases=1 bus1=40.2 kv=2.4 irradiance=1 kva=18.0000 Pmpp=18.0000 Vmaxpu=1.05 Vminpu=0.95 %cutin=0.1 %cutout=0.1
New PVSystem.PV_45_b      phases=1 bus1=45.2 kv=2.4 irradiance=1 kva=18.0000 Pmpp=18.0000 Vmaxpu=1.05 Vminpu=0.95 %cutin=0.1 %cutout=0.1
New PVSystem.PV_49_a      phases=1 bus1=49.1 kv=2.4 irradiance=1 kva=15.7500 Pmpp=15.7500 Vmaxpu=1.05 Vminpu=0.95 %cutin=0.1 %cutout=0.1
New PVSystem.PV_49_b      phases=1 bus1=49.2 kv=2.4 irradiance=1 kva=15.7500 Pmpp=15.7500 Vmaxpu=1.05 Vminpu=0.95 %cutin=0.1 %cutout=0.1
New PVSystem.PV_49_c      phases=1 bus1=49.3 kv=2.4 irradiance=1 kva=15.7500 Pmpp=15.7500 Vmaxpu=1.05 Vminpu=0.95 %cutin=0.1 %cutout=0.1
New PVSystem.PV_50_a      phases=1 bus1=50.1 kv=2.4 irradiance=1 kva=31.5000 Pmpp=31.5000 Vmaxpu=1.05 Vminpu=0.95 %cutin=0.1 %cutout=0.1
New PVSystem.PV_50_b      phases=1 bus1=50.2 kv=2.4 irradiance=1 kva=31.5000 Pmpp=31.5000 Vmaxpu=1.05 Vminpu=0.95 %cutin=0.1 %cutout=0.1
New PVSystem.PV_50_c      phases=1 bus1=50.3 kv=2.4 irradiance=1 kva=31.5000 Pmpp=31.5000 Vmaxpu=1.05 Vminpu=0.95 %cutin=0.1 %cutout=0.1
New PVSystem.PV_51_a      phases=1 bus1=51.1 kv=2.4 irradiance=1 kva=15.7500 Pmpp=15.7500 Vmaxpu=1.05 Vminpu=0.95 %cutin=0.1 %cutout=0.1
New PVSystem.PV_51_b      phases=1 bus1=51.2 kv=2.4 irradiance=1 kva=31.5000 Pmpp=31.5000 Vmaxpu=1.05 Vminpu=0.95 %cutin=0.1 %cutout=0.1
New PVSystem.PV_51_c      phases=1 bus1=51.3 kv=2.4 irradiance=1 kva=15.7500 Pmpp=15.7500 Vmaxpu=1.05 Vminpu=0.95 %cutin=0.1 %cutout=0.1
New PVSystem.PV_52_c      phases=1 bus1=52.3 kv=2.4 irradiance=1 kva=18.0000 Pmpp=18.0000 Vmaxpu=1.05 Vminpu=0.95 %cutin=0.1 %cutout=0.1
New PVSystem.PV_54_a      phases=1 bus1=54.1 kv=2.4 irradiance=1 kva=18.0000 Pmpp=18.0000 Vmaxpu=1.05 Vminpu=0.95 %cutin=0.1 %cutout=0.1
New PVSystem.PV_55_a      phases=1 bus1=55.1 kv=2.4 irradiance=1 kva=18.0000 Pmpp=18.0000 Vmaxpu=1.05 Vminpu=0.95 %cutin=0.1 %cutout=0.1
New PVSystem.PV_60_b      phases=1 bus1=60.2 kv=2.4 irradiance=1 kva=18.0000 Pmpp=18.0000 Vmaxpu=1.05 Vminpu=0.95 %cutin=0.1 %cutout=0.1
New PVSystem.PV_64_c      phases=1 bus1=64.3 kv=2.4 irradiance=1 kva=18.0000 Pmpp=18.0000 Vmaxpu=1.05 Vminpu=0.95 %cutin=0.1 %cutout=0.1
New PVSystem.PV_65_a      phases=1 bus1=65.1 kv=2.4 irradiance=1 kva=18.0000 Pmpp=18.0000 Vmaxpu=1.05 Vminpu=0.95 %cutin=0.1 %cutout=0.1
New PVSystem.PV_66_b      phases=1 bus1=66.2 kv=2.4 irradiance=1 kva=33.7500 Pmpp=33.7500 Vmaxpu=1.05 Vminpu=0.95 %cutin=0.1 %cutout=0.1
New PVSystem.PV_67_a      phases=1 bus1=67.1 kv=2.4 irradiance=1 kva=15.7500 Pmpp=15.7500 Vmaxpu=1.05 Vminpu=0.95 %cutin=0.1 %cutout=0.1
New PVSystem.PV_67_b      phases=1 bus1=67.2 kv=2.4 irradiance=1 kva=15.7500 Pmpp=15.7500 Vmaxpu=1.05 Vminpu=0.95 %cutin=0.1 %cutout=0.1
New PVSystem.PV_67_c      phases=1 bus1=67.3 kv=2.4 irradiance=1 kva=31.5000 Pmpp=31.5000 Vmaxpu=1.05 Vminpu=0.95 %cutin=0.1 %cutout=0.1
New PVSystem.PV_68_c      phases=1 bus1=68.3 kv=2.4 irradiance=1 kva=33.7500 Pmpp=33.7500 Vmaxpu=1.05 Vminpu=0.95 %cutin=0.1 %cutout=0.1
New PVSystem.PV_71_a      phases=1 bus1=71.1 kv=2.4 irradiance=1 kva=18.0000 Pmpp=18.0000 Vmaxpu=1.05 Vminpu=0.95 %cutin=0.1 %cutout=0.1
New PVSystem.PV_73_a      phases=1 bus1=73.1 kv=2.4 irradiance=1 kva=18.0000 Pmpp=18.0000 Vmaxpu=1.05 Vminpu=0.95 %cutin=0.1 %cutout=0.1
New PVSystem.PV_75_c      phases=1 bus1=75.3 kv=2.4 irradiance=1 kva=18.0000 Pmpp=18.0000 Vmaxpu=1.05 Vminpu=0.95 %cutin=0.1 %cutout=0.1
New PVSystem.PV_76_c      phases=1 bus1=76.3 kv=2.4 irradiance=1 kva=18.0000 Pmpp=18.0000 Vmaxpu=1.05 Vminpu=0.95 %cutin=0.1 %cutout=0.1
New PVSystem.PV_77_c      phases=1 bus1=77.3 kv=2.4 irradiance=1 kva=18.0000 Pmpp=18.0000 Vmaxpu=1.05 Vminpu=0.95 %cutin=0.1 %cutout=0.1
New PVSystem.PV_78_a      phases=1 bus1=78.1 kv=2.4 irradiance=1 kva=47.2500 Pmpp=47.2500 Vmaxpu=1.05 Vminpu=0.95 %cutin=0.1 %cutout=0.1
New PVSystem.PV_78_b      phases=1 bus1=78.2 kv=2.4 irradiance=1 kva=31.5000 Pmpp=31.5000 Vmaxpu=1.05 Vminpu=0.95 %cutin=0.1 %cutout=0.1
New PVSystem.PV_78_c      phases=1 bus1=78.3 kv=2.4 irradiance=1 kva=31.5000 Pmpp=31.5000 Vmaxpu=1.05 Vminpu=0.95 %cutin=0.1 %cutout=0.1
New PVSystem.PV_79_b      phases=1 bus1=79.2 kv=2.4 irradiance=1 kva=18.0000 Pmpp=18.0000 Vmaxpu=1.05 Vminpu=0.95 %cutin=0.1 %cutout=0.1
New PVSystem.PV_81_a      phases=1 bus1=81.1 kv=2.4 irradiance=1 kva=18.0000 Pmpp=18.0000 Vmaxpu=1.05 Vminpu=0.95 %cutin=0.1 %cutout=0.1
New PVSystem.PV_82_b      phases=1 bus1=82.2 kv=2.4 irradiance=1 kva=18.0000 Pmpp=18.0000 Vmaxpu=1.05 Vminpu=0.95 %cutin=0.1 %cutout=0.1
New PVSystem.PV_84_a      phases=1 bus1=84.1 kv=2.4 irradiance=1 kva=18.0000 Pmpp=18.0000 Vmaxpu=1.05 Vminpu=0.95 %cutin=0.1 %cutout=0.1
New PVSystem.PV_108_b     phases=1 bus1=108.2 kv=2.4 irradiance=1 kva=36.0000 Pmpp=36.0000 Vmaxpu=1.05 Vminpu=0.95 %cutin=0.1 %cutout=0.1
